<?xml version="1.0" encoding="UTF-8"?>

<!-- generated on Wed Feb 14 14:57:00 2018 by SUMO netconvert Version 0.23.0
<?xml version="1.0" encoding="UTF-8"?>

<configuration xmlns:xsi="http://www.w3.org/2001/XMLSchema-instance" xsi:noNamespaceSchemaLocation="http://sumo.dlr.de/xsd/netconvertConfiguration.xsd">

    <input>
        <osm-files value="map.osm"/>
    </input>

    <output>
        <output-file value="map.net.xml"/>
    </output>

    <projection>
        <proj.utm value="true"/>
    </projection>

</configuration>
-->

<net version="0.13" xmlns:xsi="http://www.w3.org/2001/XMLSchema-instance" xsi:noNamespaceSchemaLocation="http://sumo.dlr.de/xsd/net_file.xsd">

    <location netOffset="-666528.61,-4358024.00" convBoundary="0.00,0.00,2608.24,1851.59" origBoundary="22.932921,39.355241,22.963068,39.372038" projParameter="+proj=utm +zone=34 +ellps=WGS84 +datum=WGS84 +units=m +no_defs"/>

    <edge id=":1875024889_0" function="internal">
        <lane id=":1875024889_0_0" index="0" speed="8.33" length="5.18" shape="458.62,760.93 453.97,763.22"/>
    </edge>
    <edge id=":1875024889_1" function="internal">
        <lane id=":1875024889_1_0" index="0" speed="13.89" length="0.10" shape="453.97,763.22 453.97,763.22"/>
    </edge>
    <edge id=":191062886_0" function="internal">
        <lane id=":191062886_0_0" index="0" speed="27.78" length="5.97" shape="1255.10,879.12 1251.74,874.05"/>
        <lane id=":191062886_0_1" index="1" speed="27.78" length="5.97" shape="1257.79,877.21 1254.55,872.32"/>
    </edge>
    <edge id=":191062886_2" function="internal">
        <lane id=":191062886_2_0" index="0" speed="25.00" length="4.96" shape="1250.78,878.33 1251.80,877.43 1252.30,876.42 1252.28,875.29 1251.74,874.05"/>
    </edge>
    <edge id=":1983306236_0" function="internal">
        <lane id=":1983306236_0_0" index="0" speed="13.89" length="8.42" shape="460.70,757.62 458.24,758.46 456.34,759.54 454.99,760.86 454.21,762.43"/>
    </edge>
    <edge id=":1983306236_1" function="internal">
        <lane id=":1983306236_1_0" index="0" speed="13.89" length="10.65" shape="460.70,757.62 457.53,758.41 455.32,758.79 453.07,758.93 449.80,759.01"/>
        <lane id=":1983306236_1_1" index="1" speed="13.89" length="10.65" shape="459.86,754.43 456.91,755.16 454.85,755.51 452.76,755.64 449.72,755.71"/>
    </edge>
    <edge id=":1983306236_3" function="internal">
        <lane id=":1983306236_3_0" index="0" speed="13.89" length="10.97" shape="456.81,751.78 456.21,754.84 455.70,757.15 455.09,759.43 454.21,762.43"/>
    </edge>
    <edge id=":1983306236_4" function="internal">
        <lane id=":1983306236_4_0" index="0" speed="13.89" length="8.78" shape="456.81,751.78 456.09,753.44 454.68,754.65 452.55,755.41 449.72,755.71"/>
    </edge>
    <edge id=":1983306236_5" function="internal">
        <lane id=":1983306236_5_0" index="0" speed="13.89" length="11.45" shape="451.28,752.09 453.28,754.23 454.43,756.66 454.74,759.39 454.21,762.43"/>
    </edge>
    <edge id=":2003124422_0" function="internal">
        <lane id=":2003124422_0_0" index="0" speed="15.28" length="5.04" shape="1062.46,654.91 1061.57,653.85 1060.56,653.33 1059.43,653.37 1058.18,653.96"/>
    </edge>
    <edge id=":2003124422_1" function="internal">
        <lane id=":2003124422_1_0" index="0" speed="27.78" length="6.32" shape="1063.46,650.61 1058.18,653.96"/>
        <lane id=":2003124422_1_1" index="1" speed="27.78" length="6.32" shape="1061.74,647.79 1056.36,651.21"/>
    </edge>
    <edge id=":2003124423_0" function="internal">
        <lane id=":2003124423_0_0" index="0" allow="pedestrian" speed="8.33" length="6.25" shape="1103.40,715.77 1097.99,718.91"/>
    </edge>
    <edge id=":2003124423_1" function="internal">
        <lane id=":2003124423_1_0" index="0" allow="pedestrian" speed="5.56" length="5.05" shape="1103.40,715.77 1102.14,716.30 1101.01,716.29 1099.99,715.75 1099.10,714.67"/>
    </edge>
    <edge id=":2003230186_0" function="internal">
        <lane id=":2003230186_0_0" index="0" speed="13.89" length="6.15" shape="1178.19,865.29 1174.47,860.40"/>
    </edge>
    <edge id=":2003230186_1" function="internal">
        <lane id=":2003230186_1_0" index="0" speed="11.11" length="5.01" shape="1178.85,860.96 1177.64,861.61 1176.50,861.74 1175.45,861.33 1174.47,860.40"/>
    </edge>
    <edge id=":2202321958_0" function="internal">
        <lane id=":2202321958_0_0" index="0" speed="13.89" length="6.14" shape="874.55,761.41 871.79,755.93"/>
    </edge>
    <edge id=":2202321958_1" function="internal">
        <lane id=":2202321958_1_0" index="0" speed="11.11" length="4.98" shape="870.37,760.08 871.49,759.30 872.10,758.35 872.20,757.22 871.79,755.93"/>
    </edge>
    <edge id=":2211615055_0" function="internal">
        <lane id=":2211615055_0_0" index="0" speed="9.72" length="7.16" shape="700.33,765.13 699.27,762.94 698.14,761.38 696.96,760.43 695.71,760.10"/>
    </edge>
    <edge id=":2211615055_1" function="internal">
        <lane id=":2211615055_1_0" index="0" allow="delivery" speed="5.56" length="4.82" shape="700.33,765.13 700.62,763.67 701.22,762.97 702.14,763.03 703.38,763.86"/>
    </edge>
    <edge id=":2211615055_2" function="internal">
        <lane id=":2211615055_2_0" index="0" allow="delivery" speed="9.72" length="5.60" shape="705.81,760.28 704.18,760.48 703.23,761.14 702.96,762.27 703.38,763.86"/>
    </edge>
    <edge id=":2211615055_3" function="internal">
        <lane id=":2211615055_3_0" index="0" speed="13.89" length="10.10" shape="705.81,760.28 702.81,760.23 700.76,760.19 698.71,760.15 695.71,760.10"/>
        <lane id=":2211615055_3_1" index="1" speed="13.89" length="10.10" shape="705.87,756.99 702.87,756.93 700.82,756.89 698.77,756.85 695.78,756.80"/>
        <lane id=":2211615055_3_2" index="2" speed="13.89" length="10.10" shape="705.93,753.69 702.94,753.63 700.88,753.59 698.83,753.55 695.84,753.50"/>
    </edge>
    <edge id=":2211615056_0" function="internal">
        <lane id=":2211615056_0_0" index="0" speed="16.67" length="5.61" shape="726.90,834.37 727.84,835.72 728.87,836.25 729.99,835.95 731.19,834.82"/>
    </edge>
    <edge id=":2211615056_1" function="internal">
        <lane id=":2211615056_1_0" index="0" allow="delivery" speed="5.56" length="4.82" shape="726.90,834.37 726.73,835.85 726.18,836.59 725.26,836.60 723.96,835.87"/>
    </edge>
    <edge id=":2211615056_2" function="internal">
        <lane id=":2211615056_2_0" index="0" allow="delivery" speed="16.67" length="7.17" shape="724.79,842.66 725.35,841.49 725.40,839.98 724.93,838.10 723.96,835.87"/>
    </edge>
    <edge id=":2211615056_3" function="internal">
        <lane id=":2211615056_3_0" index="0" speed="27.78" length="10.13" shape="724.79,842.66 726.70,840.34 728.01,838.75 729.30,837.16 731.19,834.82"/>
        <lane id=":2211615056_3_1" index="1" speed="27.78" length="10.13" shape="727.34,844.76 729.25,842.43 730.56,840.84 731.86,839.24 733.75,836.91"/>
    </edge>
    <edge id=":2214633444_0" function="internal">
        <lane id=":2214633444_0_0" index="0" speed="13.89" length="5.84" shape="393.01,762.75 391.85,763.11 390.82,763.89 389.92,765.11 389.15,766.75"/>
    </edge>
    <edge id=":2214633444_1" function="internal">
        <lane id=":2214633444_1_0" index="0" speed="20.83" length="6.41" shape="393.01,762.75 386.57,763.30"/>
        <lane id=":2214633444_1_1" index="1" speed="20.83" length="6.41" shape="392.64,759.47 386.32,760.01"/>
    </edge>
    <edge id=":2506195769_0" function="internal">
        <lane id=":2506195769_0_0" index="0" allow="pedestrian" speed="2.78" length="5.01" shape="750.14,534.98 749.58,533.72 749.56,532.59 750.07,531.59 751.13,530.71"/>
    </edge>
    <edge id=":2506195769_1" function="internal">
        <lane id=":2506195769_1_0" index="0" allow="pedestrian" speed="2.78" length="6.15" shape="745.84,533.84 751.13,530.71"/>
    </edge>
    <edge id=":2506508087_0" function="internal">
        <lane id=":2506508087_0_0" index="0" allow="delivery" speed="5.56" length="4.82" shape="484.24,558.31 483.10,559.27 482.20,559.44 481.52,558.82 481.06,557.40"/>
    </edge>
    <edge id=":2506508095_0" function="internal">
        <lane id=":2506508095_0_0" index="0" allow="delivery" speed="5.56" length="1.53" shape="417.18,664.72 416.20,663.54"/>
    </edge>
    <edge id=":2506508095_1" function="internal">
        <lane id=":2506508095_1_0" index="0" allow="delivery" speed="5.56" length="2.41" shape="417.18,664.72 416.80,663.28 417.03,662.39"/>
    </edge>
    <edge id=":2506508095_4" function="internal">
        <lane id=":2506508095_4_0" index="0" speed="5.56" length="2.41" shape="417.03,662.39 417.89,662.04 419.36,662.24"/>
    </edge>
    <edge id=":2506508095_2" function="internal">
        <lane id=":2506508095_2_0" index="0" allow="delivery" speed="5.56" length="0.50" shape="419.04,661.86 419.36,662.24"/>
    </edge>
    <edge id=":2506508095_3" function="internal">
        <lane id=":2506508095_3_0" index="0" allow="delivery" speed="5.56" length="2.41" shape="419.04,661.86 418.96,663.34 418.47,664.12"/>
    </edge>
    <edge id=":2506508095_5" function="internal">
        <lane id=":2506508095_5_0" index="0" speed="5.56" length="2.41" shape="418.47,664.12 417.55,664.19 416.20,663.54"/>
    </edge>
    <edge id=":2506508096_0" function="internal">
        <lane id=":2506508096_0_0" index="0" allow="delivery" speed="5.56" length="5.08" shape="429.49,673.97 428.17,673.49 427.04,673.57 426.09,674.21 425.34,675.40"/>
    </edge>
    <edge id=":2506508096_1" function="internal">
        <lane id=":2506508096_1_0" index="0" allow="delivery" speed="5.56" length="9.19" shape="429.49,673.97 421.86,668.84"/>
    </edge>
    <edge id=":2506508096_2" function="internal">
        <lane id=":2506508096_2_0" index="0" allow="delivery" speed="5.56" length="4.82" shape="429.49,673.97 428.78,672.66 428.81,671.73 429.56,671.20 431.04,671.05"/>
    </edge>
    <edge id=":2506508096_3" function="internal">
        <lane id=":2506508096_3_0" index="0" allow="delivery" speed="5.56" length="8.42" shape="424.04,666.37 431.04,671.05"/>
    </edge>
    <edge id=":2506508096_4" function="internal">
        <lane id=":2506508096_4_0" index="0" allow="delivery" speed="5.56" length="9.83" shape="424.04,666.37 425.55,668.20 426.28,670.31 426.21,672.71 425.34,675.40"/>
    </edge>
    <edge id=":2506508096_5" function="internal">
        <lane id=":2506508096_5_0" index="0" allow="delivery" speed="5.56" length="4.82" shape="424.04,666.37 424.42,667.80 424.19,668.70 423.33,669.04 421.86,668.84"/>
    </edge>
    <edge id=":2506508096_6" function="internal">
        <lane id=":2506508096_6_0" index="0" allow="delivery" speed="5.56" length="5.62" shape="422.33,674.05 422.88,672.44 422.98,671.03 422.64,669.83 421.86,668.84"/>
    </edge>
    <edge id=":2506508096_7" function="internal">
        <lane id=":2506508096_7_0" index="0" allow="delivery" speed="5.56" length="10.67" shape="422.33,674.05 423.90,671.55 425.88,670.22 428.26,670.05 431.04,671.05"/>
    </edge>
    <edge id=":2506508096_8" function="internal">
        <lane id=":2506508096_8_0" index="0" allow="delivery" speed="5.56" length="4.82" shape="422.33,674.05 423.59,673.26 424.51,673.22 425.09,673.93 425.34,675.40"/>
    </edge>
    <edge id=":2506508105_0" function="internal">
        <lane id=":2506508105_0_0" index="0" speed="13.89" length="9.57" shape="416.48,704.50 407.75,700.58"/>
    </edge>
    <edge id=":2506508105_1" function="internal">
        <lane id=":2506508105_1_0" index="0" allow="delivery" speed="9.72" length="7.30" shape="416.48,704.50 414.01,703.27 412.35,702.09 411.48,700.96 411.42,699.88"/>
    </edge>
    <edge id=":2506508105_2" function="internal">
        <lane id=":2506508105_2_0" index="0" speed="9.72" length="8.07" shape="414.85,700.02 414.00,701.30 412.54,701.82 410.45,701.58 407.75,700.58"/>
    </edge>
    <edge id=":2506508105_3" function="internal">
        <lane id=":2506508105_3_0" index="0" allow="delivery" speed="5.56" length="5.00" shape="414.85,700.02 413.94,701.27 413.06,701.66 412.23,701.20 411.42,699.88"/>
    </edge>
    <edge id=":2506508109_0" function="internal">
        <lane id=":2506508109_0_0" index="0" speed="13.89" length="6.29" shape="427.53,709.13 421.66,706.86"/>
    </edge>
    <edge id=":2506508109_1" function="internal">
        <lane id=":2506508109_1_0" index="0" allow="delivery" speed="9.72" length="8.11" shape="427.53,709.13 424.91,707.98 423.25,706.69 422.55,705.27 422.81,703.72"/>
    </edge>
    <edge id=":2506508109_2" function="internal">
        <lane id=":2506508109_2_0" index="0" speed="9.72" length="5.03" shape="425.73,705.28 424.97,706.49 424.03,707.16 422.93,707.29 421.66,706.86"/>
    </edge>
    <edge id=":2506508109_3" function="internal">
        <lane id=":2506508109_3_0" index="0" allow="delivery" speed="5.56" length="4.83" shape="425.73,705.28 424.42,705.98 423.49,705.96 422.96,705.21 422.81,703.72"/>
    </edge>
    <edge id=":2507487631_0" function="internal">
        <lane id=":2507487631_0_0" index="0" allow="bicycle" speed="5.56" length="9.88" shape="418.55,699.07 409.51,695.10"/>
    </edge>
    <edge id=":2507487631_1" function="internal">
        <lane id=":2507487631_1_0" index="0" allow="bicycle" speed="5.56" length="4.82" shape="418.55,699.07 417.73,697.83 417.68,696.91 418.38,696.31 419.84,696.03"/>
    </edge>
    <edge id=":2507487631_2" function="internal">
        <lane id=":2507487631_2_0" index="0" allow="delivery" speed="5.56" length="8.55" shape="418.01,691.86 414.91,699.83"/>
    </edge>
    <edge id=":2507487631_3" function="internal">
        <lane id=":2507487631_3_0" index="0" allow="delivery" speed="5.56" length="2.41" shape="418.01,691.86 416.75,692.66 415.83,692.70"/>
    </edge>
    <edge id=":2507487631_8" function="internal">
        <lane id=":2507487631_8_0" index="0" speed="5.56" length="2.41" shape="415.83,692.70 415.24,691.98 414.99,690.52"/>
    </edge>
    <edge id=":2507487631_4" function="internal">
        <lane id=":2507487631_4_0" index="0" allow="bicycle" speed="5.56" length="9.78" shape="410.88,692.09 419.84,696.03"/>
    </edge>
    <edge id=":2507487631_5" function="internal">
        <lane id=":2507487631_5_0" index="0" allow="bicycle" speed="5.56" length="4.82" shape="410.88,692.09 411.66,693.36 411.70,694.28 410.98,694.86 409.51,695.10"/>
    </edge>
    <edge id=":2507487631_6" function="internal">
        <lane id=":2507487631_6_0" index="0" allow="delivery" speed="5.56" length="9.82" shape="411.48,699.69 414.99,690.52"/>
    </edge>
    <edge id=":2507487631_7" function="internal">
        <lane id=":2507487631_7_0" index="0" allow="delivery" speed="5.56" length="3.08" shape="411.48,699.69 412.39,698.44 413.26,698.05 413.77,698.33"/>
    </edge>
    <edge id=":2507487631_9" function="internal">
        <lane id=":2507487631_9_0" index="0" speed="5.56" length="1.92" shape="413.77,698.33 414.10,698.51 414.91,699.83"/>
    </edge>
    <edge id=":2507487632_0" function="internal">
        <lane id=":2507487632_0_0" index="0" allow="bicycle" speed="5.56" length="6.19" shape="429.78,703.85 424.09,701.42"/>
    </edge>
    <edge id=":2507487632_1" function="internal">
        <lane id=":2507487632_1_0" index="0" allow="bicycle" speed="5.56" length="4.82" shape="429.78,703.85 428.96,702.61 428.91,701.69 429.61,701.09 431.08,700.82"/>
    </edge>
    <edge id=":2507487632_2" function="internal">
        <lane id=":2507487632_2_0" index="0" allow="delivery" speed="5.56" length="9.08" shape="429.42,696.76 425.81,705.10"/>
    </edge>
    <edge id=":2507487632_3" function="internal">
        <lane id=":2507487632_3_0" index="0" allow="delivery" speed="5.56" length="2.41" shape="429.42,696.76 428.18,697.60 427.26,697.67"/>
    </edge>
    <edge id=":2507487632_8" function="internal">
        <lane id=":2507487632_8_0" index="0" speed="5.56" length="2.41" shape="427.26,697.67 426.66,696.97 426.36,695.51"/>
    </edge>
    <edge id=":2507487632_4" function="internal">
        <lane id=":2507487632_4_0" index="0" allow="bicycle" speed="5.56" length="6.20" shape="425.37,698.38 431.08,700.82"/>
    </edge>
    <edge id=":2507487632_5" function="internal">
        <lane id=":2507487632_5_0" index="0" allow="bicycle" speed="5.56" length="4.82" shape="425.37,698.38 426.19,699.62 426.25,700.54 425.55,701.14 424.09,701.42"/>
    </edge>
    <edge id=":2507487632_6" function="internal">
        <lane id=":2507487632_6_0" index="0" allow="delivery" speed="5.56" length="8.10" shape="423.16,702.96 426.36,695.51"/>
    </edge>
    <edge id=":2507487632_7" function="internal">
        <lane id=":2507487632_7_0" index="0" allow="delivery" speed="5.56" length="2.06" shape="423.16,702.96 424.63,702.50 425.14,702.61"/>
    </edge>
    <edge id=":2507487632_9" function="internal">
        <lane id=":2507487632_9_0" index="0" speed="5.56" length="2.91" shape="425.14,702.61 425.56,702.70 425.95,703.57 425.81,705.10"/>
    </edge>
    <edge id=":2507487634_0" function="internal">
        <lane id=":2507487634_0_0" index="0" allow="pedestrian" speed="11.11" length="5.35" shape="1084.07,730.39 1083.10,729.32 1082.00,728.77 1080.78,728.76 1079.43,729.28"/>
    </edge>
    <edge id=":2507487634_1" function="internal">
        <lane id=":2507487634_1_0" index="0" speed="13.89" length="6.48" shape="1084.07,730.39 1080.45,725.02"/>
    </edge>
    <edge id=":2507487634_2" function="internal">
        <lane id=":2507487634_2_0" index="0" allow="pedestrian" speed="8.33" length="6.48" shape="1085.08,726.12 1079.43,729.28"/>
    </edge>
    <edge id=":2507487634_3" function="internal">
        <lane id=":2507487634_3_0" index="0" speed="11.11" length="5.34" shape="1085.08,726.12 1083.73,726.65 1082.51,726.64 1081.42,726.10 1080.45,725.02"/>
    </edge>
    <edge id=":2507487640_0" function="internal">
        <lane id=":2507487640_0_0" index="0" speed="13.89" length="4.77" shape="693.96,950.40 698.50,951.83"/>
    </edge>
    <edge id=":2507487640_1" function="internal">
        <lane id=":2507487640_1_0" index="0" allow="pedestrian" speed="11.11" length="5.27" shape="693.96,950.40 695.30,951.05 696.02,951.94 696.10,953.08 695.56,954.47"/>
    </edge>
    <edge id=":258643899_0" function="internal">
        <lane id=":258643899_0_0" index="0" speed="20.83" length="5.02" shape="871.65,755.64 870.89,754.48 869.95,753.81 868.83,753.63 867.53,753.93"/>
    </edge>
    <edge id=":258643899_1" function="internal">
        <lane id=":258643899_1_0" index="0" speed="27.78" length="6.00" shape="873.13,751.51 867.53,753.93"/>
        <lane id=":258643899_1_1" index="1" speed="27.78" length="6.00" shape="871.73,748.52 866.32,750.86"/>
    </edge>
    <edge id=":2674771989_0" function="internal">
        <lane id=":2674771989_0_0" index="0" allow="pedestrian" speed="2.78" length="11.35" shape="812.99,625.92 810.30,624.18 808.05,622.98 806.01,621.59 803.92,619.26"/>
    </edge>
    <edge id=":2674771989_1" function="internal">
        <lane id=":2674771989_1_0" index="0" allow="bicycle" speed="5.56" length="8.27" shape="811.12,619.66 809.36,627.74"/>
    </edge>
    <edge id=":2674771989_2" function="internal">
        <lane id=":2674771989_2_0" index="0" allow="bicycle" speed="5.56" length="2.41" shape="811.12,619.66 809.83,620.40 808.91,620.40"/>
    </edge>
    <edge id=":2674771989_5" function="internal">
        <lane id=":2674771989_5_0" index="0" speed="5.56" length="2.41" shape="808.91,620.40 808.35,619.67 808.17,618.19"/>
    </edge>
    <edge id=":2674771989_3" function="internal">
        <lane id=":2674771989_3_0" index="0" allow="bicycle" speed="5.56" length="9.41" shape="806.08,627.37 808.17,618.19"/>
    </edge>
    <edge id=":2674771989_4" function="internal">
        <lane id=":2674771989_4_0" index="0" allow="bicycle" speed="5.56" length="2.41" shape="806.08,627.37 807.04,626.23 807.91,625.91"/>
    </edge>
    <edge id=":2674771989_6" function="internal">
        <lane id=":2674771989_6_0" index="0" speed="5.56" length="2.41" shape="807.91,625.91 808.68,626.41 809.36,627.74"/>
    </edge>
    <edge id=":2674771990_0" function="internal">
        <lane id=":2674771990_0_0" index="0" speed="13.89" length="4.91" shape="818.78,626.71 816.10,630.82"/>
    </edge>
    <edge id=":2674771990_1" function="internal">
        <lane id=":2674771990_1_0" index="0" allow="pedestrian" speed="8.33" length="2.83" shape="818.78,626.71 817.74,627.49 816.46,627.63 816.23,627.56"/>
    </edge>
    <edge id=":2674771990_2" function="internal">
        <lane id=":2674771990_2_0" index="0" speed="13.89" length="2.24" shape="818.78,626.71 817.35,627.13 816.62,626.95"/>
    </edge>
    <edge id=":2674771990_6" function="internal">
        <lane id=":2674771990_6_0" index="0" speed="8.33" length="3.46" shape="816.23,627.56 814.93,627.15 813.15,626.04"/>
    </edge>
    <edge id=":2674771990_7" function="internal">
        <lane id=":2674771990_7_0" index="0" speed="13.89" length="2.58" shape="816.62,626.95 816.46,626.92 816.09,626.07 816.25,624.59"/>
    </edge>
    <edge id=":2674771990_3" function="internal">
        <lane id=":2674771990_3_0" index="0" allow="pedestrian" speed="8.33" length="3.64" shape="813.11,629.43 813.55,628.26 813.71,627.31 813.57,626.57 813.15,626.04"/>
    </edge>
    <edge id=":2674771990_4" function="internal">
        <lane id=":2674771990_4_0" index="0" speed="13.89" length="5.76" shape="813.11,629.43 816.25,624.59"/>
    </edge>
    <edge id=":2674771990_5" function="internal">
        <lane id=":2674771990_5_0" index="0" speed="13.89" length="2.69" shape="813.11,629.43 814.38,628.65 815.30,628.63 815.47,628.85"/>
    </edge>
    <edge id=":2674771990_8" function="internal">
        <lane id=":2674771990_8_0" index="0" speed="13.89" length="2.13" shape="815.47,628.85 815.87,629.35 816.10,630.82"/>
    </edge>
    <edge id=":2682725919_0" function="internal">
        <lane id=":2682725919_0_0" index="0" speed="25.00" length="5.46" shape="759.85,799.55 759.87,799.15 759.79,798.12 759.62,796.44 759.35,794.12"/>
    </edge>
    <edge id=":2682725919_1" function="internal">
        <lane id=":2682725919_1_0" index="0" speed="27.78" length="5.00" shape="759.85,799.55 762.99,795.66"/>
        <lane id=":2682725919_1_1" index="1" speed="27.78" length="5.00" shape="762.41,801.63 765.55,797.74"/>
    </edge>
    <edge id=":2682725921_0" function="internal">
        <lane id=":2682725921_0_0" index="0" speed="18.06" length="5.63" shape="743.54,764.92 739.58,760.91"/>
    </edge>
    <edge id=":2682725921_1" function="internal">
        <lane id=":2682725921_1_0" index="0" speed="13.89" length="5.00" shape="744.58,761.01 739.58,760.91"/>
        <lane id=":2682725921_1_1" index="1" speed="13.89" length="5.00" shape="744.64,757.71 739.64,757.61"/>
        <lane id=":2682725921_1_2" index="2" speed="13.89" length="5.00" shape="744.70,754.41 739.71,754.32"/>
    </edge>
    <edge id=":2682725922_0" function="internal">
        <lane id=":2682725922_0_0" index="0" speed="20.83" length="12.20" shape="796.00,745.13 799.00,747.69 801.12,749.48 802.76,751.59 804.29,755.10"/>
        <lane id=":2682725922_0_1" index="1" speed="20.83" length="12.20" shape="793.77,747.56 797.30,750.86 799.82,753.26 801.33,754.73 801.83,755.29"/>
    </edge>
    <edge id=":2682725922_2" function="internal">
        <lane id=":2682725922_2_0" index="0" speed="27.78" length="13.37" shape="794.81,756.12 796.51,752.58 797.62,750.13 798.64,747.64 800.04,743.97"/>
        <lane id=":2682725922_2_1" index="1" speed="27.78" length="13.37" shape="797.79,757.55 799.52,753.93 800.66,751.43 801.70,748.89 803.13,745.14"/>
    </edge>
    <edge id=":2682725922_4" function="internal">
        <lane id=":2682725922_4_0" index="0" speed="27.78" length="9.65" shape="797.79,757.55 799.74,753.87 801.07,752.26 801.76,752.74 801.83,755.29"/>
    </edge>
    <edge id=":2682725925_0" function="internal">
        <lane id=":2682725925_0_0" index="0" allow="delivery" speed="5.56" length="0.72" shape="432.69,675.60 432.04,675.31"/>
    </edge>
    <edge id=":2682725925_1" function="internal">
        <lane id=":2682725925_1_0" index="0" allow="delivery" speed="5.56" length="2.41" shape="432.69,675.60 431.80,674.41 431.69,673.50"/>
    </edge>
    <edge id=":2682725925_4" function="internal">
        <lane id=":2682725925_4_0" index="0" speed="5.56" length="2.41" shape="431.69,673.50 432.35,672.86 433.79,672.49"/>
    </edge>
    <edge id=":2682725925_2" function="internal">
        <lane id=":2682725925_2_0" index="0" allow="delivery" speed="5.56" length="0.23" shape="433.58,672.40 433.79,672.49"/>
    </edge>
    <edge id=":2682725925_3" function="internal">
        <lane id=":2682725925_3_0" index="0" allow="delivery" speed="5.56" length="2.41" shape="433.58,672.40 434.29,673.71 434.27,674.63"/>
    </edge>
    <edge id=":2682725925_5" function="internal">
        <lane id=":2682725925_5_0" index="0" speed="5.56" length="2.41" shape="434.27,674.63 433.51,675.16 432.04,675.31"/>
    </edge>
    <edge id=":2709434838_0" function="internal">
        <lane id=":2709434838_0_0" index="0" speed="9.72" length="7.29" shape="640.50,764.08 639.37,761.86 638.20,760.27 637.00,759.31 635.76,758.98"/>
    </edge>
    <edge id=":2709434838_1" function="internal">
        <lane id=":2709434838_1_0" index="0" allow="delivery" speed="5.56" length="4.82" shape="640.50,764.08 640.76,762.61 641.35,761.91 642.27,761.95 643.52,762.75"/>
    </edge>
    <edge id=":2709434838_2" function="internal">
        <lane id=":2709434838_2_0" index="0" allow="delivery" speed="9.72" length="5.64" shape="645.91,759.16 644.26,759.36 643.32,760.02 643.07,761.15 643.52,762.75"/>
    </edge>
    <edge id=":2709434838_3" function="internal">
        <lane id=":2709434838_3_0" index="0" speed="13.89" length="10.16" shape="645.91,759.16 642.90,759.11 640.83,759.07 638.77,759.03 635.76,758.98"/>
        <lane id=":2709434838_3_1" index="1" speed="13.89" length="10.16" shape="645.97,755.86 642.96,755.81 640.89,755.77 638.83,755.73 635.81,755.68"/>
        <lane id=":2709434838_3_2" index="2" speed="13.89" length="10.16" shape="646.04,752.57 643.02,752.51 640.96,752.47 638.89,752.43 635.87,752.38"/>
    </edge>
    <edge id=":2709434843_0" function="internal">
        <lane id=":2709434843_0_0" index="0" allow="delivery" speed="5.56" length="4.82" shape="669.73,822.44 669.47,823.90 668.88,824.61 667.96,824.56 666.71,823.76"/>
    </edge>
    <edge id=":287465981_0" function="internal">
        <lane id=":287465981_0_0" index="0" speed="13.89" length="0.10" shape="756.86,741.89 756.82,741.89"/>
        <lane id=":287465981_0_1" index="1" speed="13.89" length="0.10" shape="756.73,745.19 756.73,745.19"/>
    </edge>
    <edge id=":287465983_0" function="internal">
        <lane id=":287465983_0_0" index="0" speed="8.33" length="5.02" shape="629.64,734.20 629.78,735.57 630.34,736.56 631.29,737.17 632.65,737.39"/>
    </edge>
    <edge id=":287465983_1" function="internal">
        <lane id=":287465983_1_0" index="0" allow="pedestrian" speed="2.78" length="12.86" shape="629.64,734.20 629.52,737.62 629.41,740.63 629.30,743.64 629.18,747.05"/>
    </edge>
    <edge id=":287465983_2" function="internal">
        <lane id=":287465983_2_0" index="0" speed="13.89" length="6.37" shape="626.29,737.27 632.65,737.39"/>
        <lane id=":287465983_2_1" index="1" speed="13.89" length="6.37" shape="626.22,740.57 632.59,740.68"/>
        <lane id=":287465983_2_2" index="2" speed="13.89" length="6.37" shape="626.16,743.87 632.53,743.98"/>
    </edge>
    <edge id=":287465983_5" function="internal">
        <lane id=":287465983_5_0" index="0" allow="pedestrian" speed="8.33" length="5.02" shape="626.16,743.87 627.52,744.09 628.48,744.69 629.03,745.68 629.18,747.05"/>
    </edge>
    <edge id=":287465986_0" function="internal">
        <lane id=":287465986_0_0" index="0" speed="13.89" length="4.08" shape="456.14,735.25 456.30,736.53 456.73,737.43 457.40,737.95 458.34,738.09"/>
    </edge>
    <edge id=":287465986_1" function="internal">
        <lane id=":287465986_1_0" index="0" speed="13.89" length="10.58" shape="456.14,735.25 456.29,738.31 456.48,740.54 456.63,742.76 456.65,745.82"/>
    </edge>
    <edge id=":287465986_2" function="internal">
        <lane id=":287465986_2_0" index="0" speed="13.89" length="5.35" shape="452.76,738.59 458.34,738.09"/>
        <lane id=":287465986_2_1" index="1" speed="13.89" length="5.35" shape="453.16,741.86 458.49,741.39"/>
        <lane id=":287465986_2_2" index="2" speed="13.89" length="5.35" shape="453.55,745.14 458.63,744.68"/>
    </edge>
    <edge id=":287465987_0" function="internal">
        <lane id=":287465987_0_0" index="0" speed="13.89" length="3.27" shape="443.73,739.97 446.40,739.79"/>
        <lane id=":287465987_0_1" index="1" speed="13.89" length="3.27" shape="443.94,743.26 447.19,743.00"/>
        <lane id=":287465987_0_2" index="2" speed="13.89" length="3.27" shape="444.14,746.56 447.98,746.20"/>
    </edge>
    <edge id=":287465987_3" function="internal">
        <lane id=":287465987_3_0" index="0" speed="13.89" length="5.10" shape="444.35,749.85 449.40,750.55"/>
    </edge>
    <edge id=":287465994_0" function="internal">
        <lane id=":287465994_0_0" index="0" speed="20.83" length="5.04" shape="274.78,759.06 274.36,760.38 274.47,761.50 275.11,762.44 276.28,763.18"/>
    </edge>
    <edge id=":287465994_1" function="internal">
        <lane id=":287465994_1_0" index="0" speed="13.89" length="7.56" shape="274.78,759.06 271.46,765.84"/>
    </edge>
    <edge id=":287465994_2" function="internal">
        <lane id=":287465994_2_0" index="0" speed="13.89" length="2.41" shape="274.78,759.06 273.50,759.81 272.58,759.82"/>
    </edge>
    <edge id=":287465994_10" function="internal">
        <lane id=":287465994_10_0" index="0" speed="13.89" length="2.41" shape="272.58,759.82 272.01,759.09 271.81,757.62"/>
    </edge>
    <edge id=":287465994_3" function="internal">